** Generated for: hspiceD
** Generated on: Aug 12 08:58:46 2014
** Design library name: Newone
** Design cell name: multiplier
** Design view name: schematic
.GLOBAL vdd


.TEMP 25
.OPTION
+    ARTIST=2
+    INGOLD=2
+    MEASOUT=1
+    PARHIER=LOCAL
+    PSF=2
.INCLUDE "/home/cad/kits/IBM_CMRF8SF-LM013/IBM_PDK/cmrf8sf/V1.2.0.0LM/HSPICE/models/model013.lib_inc"

** Library name: Newone
** Cell name: inv
** View name: schematic
.subckt inv in out
mt0 out in 0 0 nfet l=120e-9 w=280e-9 nf=1 m=1 par=1 ngcon=1 ad=154e-15 as=154e-15 pd=1.66e-6 ps=1.66e-6 nrd=642.9e-3 nrs=642.9e-3 rf_rsub=1 plnest=-1 plorient=-1 pld200=-1 pwd100=-1 lstis=1 lnws=0 rgatemod=0 rbodymod=0 panw1=0 panw2=0 panw3=0 panw4=0 panw5=0 panw6=0 panw7=0 panw8=0 panw9=0 panw10=0 sa=550e-9 sb=550e-9 sd=0 dtemp=0
mt1 out in vdd vdd pfet l=120e-9 w=560e-9 nf=1 m=1 par=1 ngcon=1 ad=308e-15 as=308e-15 pd=2.22e-6 ps=2.22e-6 nrd=321.4e-3 nrs=321.4e-3 rf_rsub=1 plnest=-1 plorient=-1 pld200=-1 pwd100=-1 lstis=1 lnws=0 rgatemod=0 rbodymod=0 panw1=0 panw2=0 panw3=0 panw4=0 panw5=0 panw6=0 panw7=0 panw8=0 panw9=0 panw10=0 sa=550e-9 sb=550e-9 sd=0 dtemp=0
.ends inv
** End of subcircuit definition.

** Library name: Newone
** Cell name: PPMUX
** View name: schematic
.subckt PPMUX minus1 minus2 one out two xi ximinus1 zero
mt19 net065 xi 0 0 nfet l=120e-9 w=600e-9 nf=1 m=1 par=1 ngcon=1 ad=330e-15 as=330e-15 pd=2.3e-6 ps=2.3e-6 nrd=300e-3 nrs=300e-3 rf_rsub=1 plnest=-1 plorient=-1 pld200=-1 pwd100=-1 lstis=1 lnws=0 rgatemod=0 rbodymod=0 panw1=0 panw2=0 panw3=0 panw4=0 panw5=0 panw6=0 panw7=0 panw8=0 panw9=0 panw10=0 sa=550e-9 sb=550e-9 sd=0 dtemp=0
mt22 ximinus1in net069 0 0 nfet l=120e-9 w=600e-9 nf=1 m=1 par=1 ngcon=1 ad=330e-15 as=330e-15 pd=2.3e-6 ps=2.3e-6 nrd=300e-3 nrs=300e-3 rf_rsub=1 plnest=-1 plorient=-1 pld200=-1 pwd100=-1 lstis=1 lnws=0 rgatemod=0 rbodymod=0 panw1=0 panw2=0 panw3=0 panw4=0 panw5=0 panw6=0 panw7=0 panw8=0 panw9=0 panw10=0 sa=550e-9 sb=550e-9 sd=0 dtemp=0
mt21 net069 ximinus1 0 0 nfet l=120e-9 w=600e-9 nf=1 m=1 par=1 ngcon=1 ad=330e-15 as=330e-15 pd=2.3e-6 ps=2.3e-6 nrd=300e-3 nrs=300e-3 rf_rsub=1 plnest=-1 plorient=-1 pld200=-1 pwd100=-1 lstis=1 lnws=0 rgatemod=0 rbodymod=0 panw1=0 panw2=0 panw3=0 panw4=0 panw5=0 panw6=0 panw7=0 panw8=0 panw9=0 panw10=0 sa=550e-9 sb=550e-9 sd=0 dtemp=0
mt18 xiin net065 0 0 nfet l=120e-9 w=600e-9 nf=1 m=1 par=1 ngcon=1 ad=330e-15 as=330e-15 pd=2.3e-6 ps=2.3e-6 nrd=300e-3 nrs=300e-3 rf_rsub=1 plnest=-1 plorient=-1 pld200=-1 pwd100=-1 lstis=1 lnws=0 rgatemod=0 rbodymod=0 panw1=0 panw2=0 panw3=0 panw4=0 panw5=0 panw6=0 panw7=0 panw8=0 panw9=0 panw10=0 sa=550e-9 sb=550e-9 sd=0 dtemp=0
mt4 vdd zero net159 0 nfet l=120e-9 w=600e-9 nf=1 m=1 par=1 ngcon=1 ad=330e-15 as=330e-15 pd=2.3e-6 ps=2.3e-6 nrd=300e-3 nrs=300e-3 rf_rsub=1 plnest=-1 plorient=-1 pld200=-1 pwd100=-1 lstis=1 lnws=0 rgatemod=0 rbodymod=0 panw1=0 panw2=0 panw3=0 panw4=0 panw5=0 panw6=0 panw7=0 panw8=0 panw9=0 panw10=0 sa=550e-9 sb=550e-9 sd=0 dtemp=0
mt8 net132 net165 0 0 nfet l=120e-9 w=600e-9 nf=1 m=1 par=1 ngcon=1 ad=330e-15 as=330e-15 pd=2.3e-6 ps=2.3e-6 nrd=300e-3 nrs=300e-3 rf_rsub=1 plnest=-1 plorient=-1 pld200=-1 pwd100=-1 lstis=1 lnws=0 rgatemod=0 rbodymod=0 panw1=0 panw2=0 panw3=0 panw4=0 panw5=0 panw6=0 panw7=0 panw8=0 panw9=0 panw10=0 sa=550e-9 sb=550e-9 sd=0 dtemp=0
mt7 net165 net159 0 0 nfet l=120e-9 w=600e-9 nf=1 m=1 par=1 ngcon=1 ad=330e-15 as=330e-15 pd=2.3e-6 ps=2.3e-6 nrd=300e-3 nrs=300e-3 rf_rsub=1 plnest=-1 plorient=-1 pld200=-1 pwd100=-1 lstis=1 lnws=0 rgatemod=0 rbodymod=0 panw1=0 panw2=0 panw3=0 panw4=0 panw5=0 panw6=0 panw7=0 panw8=0 panw9=0 panw10=0 sa=550e-9 sb=550e-9 sd=0 dtemp=0
mt9 out net132 0 0 nfet l=120e-9 w=600e-9 nf=1 m=1 par=1 ngcon=1 ad=330e-15 as=330e-15 pd=2.3e-6 ps=2.3e-6 nrd=300e-3 nrs=300e-3 rf_rsub=1 plnest=-1 plorient=-1 pld200=-1 pwd100=-1 lstis=1 lnws=0 rgatemod=0 rbodymod=0 panw1=0 panw2=0 panw3=0 panw4=0 panw5=0 panw6=0 panw7=0 panw8=0 panw9=0 panw10=0 sa=550e-9 sb=550e-9 sd=0 dtemp=0
mt14 net144 ximinus1in 0 0 nfet l=120e-9 w=600e-9 nf=1 m=1 par=1 ngcon=1 ad=330e-15 as=330e-15 pd=2.3e-6 ps=2.3e-6 nrd=300e-3 nrs=300e-3 rf_rsub=1 plnest=-1 plorient=-1 pld200=-1 pwd100=-1 lstis=1 lnws=0 rgatemod=0 rbodymod=0 panw1=0 panw2=0 panw3=0 panw4=0 panw5=0 panw6=0 panw7=0 panw8=0 panw9=0 panw10=0 sa=550e-9 sb=550e-9 sd=0 dtemp=0
mt13 net148 xiin 0 0 nfet l=120e-9 w=600e-9 nf=1 m=1 par=1 ngcon=1 ad=330e-15 as=330e-15 pd=2.3e-6 ps=2.3e-6 nrd=300e-3 nrs=300e-3 rf_rsub=1 plnest=-1 plorient=-1 pld200=-1 pwd100=-1 lstis=1 lnws=0 rgatemod=0 rbodymod=0 panw1=0 panw2=0 panw3=0 panw4=0 panw5=0 panw6=0 panw7=0 panw8=0 panw9=0 panw10=0 sa=550e-9 sb=550e-9 sd=0 dtemp=0
mt5 net144 two net159 0 nfet l=120e-9 w=600e-9 nf=1 m=1 par=1 ngcon=1 ad=330e-15 as=330e-15 pd=2.3e-6 ps=2.3e-6 nrd=300e-3 nrs=300e-3 rf_rsub=1 plnest=-1 plorient=-1 pld200=-1 pwd100=-1 lstis=1 lnws=0 rgatemod=0 rbodymod=0 panw1=0 panw2=0 panw3=0 panw4=0 panw5=0 panw6=0 panw7=0 panw8=0 panw9=0 panw10=0 sa=550e-9 sb=550e-9 sd=0 dtemp=0
mt6 ximinus1in minus2 net159 0 nfet l=120e-9 w=600e-9 nf=1 m=1 par=1 ngcon=1 ad=330e-15 as=330e-15 pd=2.3e-6 ps=2.3e-6 nrd=300e-3 nrs=300e-3 rf_rsub=1 plnest=-1 plorient=-1 pld200=-1 pwd100=-1 lstis=1 lnws=0 rgatemod=0 rbodymod=0 panw1=0 panw2=0 panw3=0 panw4=0 panw5=0 panw6=0 panw7=0 panw8=0 panw9=0 panw10=0 sa=550e-9 sb=550e-9 sd=0 dtemp=0
mt2 xiin minus1 net159 0 nfet l=120e-9 w=600e-9 nf=1 m=1 par=1 ngcon=1 ad=330e-15 as=330e-15 pd=2.3e-6 ps=2.3e-6 nrd=300e-3 nrs=300e-3 rf_rsub=1 plnest=-1 plorient=-1 pld200=-1 pwd100=-1 lstis=1 lnws=0 rgatemod=0 rbodymod=0 panw1=0 panw2=0 panw3=0 panw4=0 panw5=0 panw6=0 panw7=0 panw8=0 panw9=0 panw10=0 sa=550e-9 sb=550e-9 sd=0 dtemp=0
mt3 net148 one net159 0 nfet l=120e-9 w=600e-9 nf=1 m=1 par=1 ngcon=1 ad=330e-15 as=330e-15 pd=2.3e-6 ps=2.3e-6 nrd=300e-3 nrs=300e-3 rf_rsub=1 plnest=-1 plorient=-1 pld200=-1 pwd100=-1 lstis=1 lnws=0 rgatemod=0 rbodymod=0 panw1=0 panw2=0 panw3=0 panw4=0 panw5=0 panw6=0 panw7=0 panw8=0 panw9=0 panw10=0 sa=550e-9 sb=550e-9 sd=0 dtemp=0
mt23 ximinus1in net069 vdd vdd pfet l=120e-9 w=1.2e-6 nf=1 m=1 par=1 ngcon=1 ad=660e-15 as=660e-15 pd=3.5e-6 ps=3.5e-6 nrd=150e-3 nrs=150e-3 rf_rsub=1 plnest=-1 plorient=-1 pld200=-1 pwd100=-1 lstis=1 lnws=0 rgatemod=0 rbodymod=0 panw1=0 panw2=0 panw3=0 panw4=0 panw5=0 panw6=0 panw7=0 panw8=0 panw9=0 panw10=0 sa=550e-9 sb=550e-9 sd=0 dtemp=0
mt20 net069 ximinus1 vdd vdd pfet l=120e-9 w=1.2e-6 nf=1 m=1 par=1 ngcon=1 ad=660e-15 as=660e-15 pd=3.5e-6 ps=3.5e-6 nrd=150e-3 nrs=150e-3 rf_rsub=1 plnest=-1 plorient=-1 pld200=-1 pwd100=-1 lstis=1 lnws=0 rgatemod=0 rbodymod=0 panw1=0 panw2=0 panw3=0 panw4=0 panw5=0 panw6=0 panw7=0 panw8=0 panw9=0 panw10=0 sa=550e-9 sb=550e-9 sd=0 dtemp=0
mt16 xiin net065 vdd vdd pfet l=120e-9 w=1.2e-6 nf=1 m=1 par=1 ngcon=1 ad=660e-15 as=660e-15 pd=3.5e-6 ps=3.5e-6 nrd=150e-3 nrs=150e-3 rf_rsub=1 plnest=-1 plorient=-1 pld200=-1 pwd100=-1 lstis=1 lnws=0 rgatemod=0 rbodymod=0 panw1=0 panw2=0 panw3=0 panw4=0 panw5=0 panw6=0 panw7=0 panw8=0 panw9=0 panw10=0 sa=550e-9 sb=550e-9 sd=0 dtemp=0
mt17 net065 xi vdd vdd pfet l=120e-9 w=1.2e-6 nf=1 m=1 par=1 ngcon=1 ad=660e-15 as=660e-15 pd=3.5e-6 ps=3.5e-6 nrd=150e-3 nrs=150e-3 rf_rsub=1 plnest=-1 plorient=-1 pld200=-1 pwd100=-1 lstis=1 lnws=0 rgatemod=0 rbodymod=0 panw1=0 panw2=0 panw3=0 panw4=0 panw5=0 panw6=0 panw7=0 panw8=0 panw9=0 panw10=0 sa=550e-9 sb=550e-9 sd=0 dtemp=0
mt10 vdd net165 net159 vdd pfet l=120e-9 w=1.2e-6 nf=1 m=1 par=1 ngcon=1 ad=660e-15 as=660e-15 pd=3.5e-6 ps=3.5e-6 nrd=150e-3 nrs=150e-3 rf_rsub=1 plnest=-1 plorient=-1 pld200=-1 pwd100=-1 lstis=1 lnws=0 rgatemod=0 rbodymod=0 panw1=0 panw2=0 panw3=0 panw4=0 panw5=0 panw6=0 panw7=0 panw8=0 panw9=0 panw10=0 sa=550e-9 sb=550e-9 sd=0 dtemp=0
mt11 net165 net159 vdd vdd pfet l=120e-9 w=1.2e-6 nf=1 m=1 par=1 ngcon=1 ad=660e-15 as=660e-15 pd=3.5e-6 ps=3.5e-6 nrd=150e-3 nrs=150e-3 rf_rsub=1 plnest=-1 plorient=-1 pld200=-1 pwd100=-1 lstis=1 lnws=0 rgatemod=0 rbodymod=0 panw1=0 panw2=0 panw3=0 panw4=0 panw5=0 panw6=0 panw7=0 panw8=0 panw9=0 panw10=0 sa=550e-9 sb=550e-9 sd=0 dtemp=0
mt12 net132 net165 vdd vdd pfet l=120e-9 w=1.2e-6 nf=1 m=1 par=1 ngcon=1 ad=660e-15 as=660e-15 pd=3.5e-6 ps=3.5e-6 nrd=150e-3 nrs=150e-3 rf_rsub=1 plnest=-1 plorient=-1 pld200=-1 pwd100=-1 lstis=1 lnws=0 rgatemod=0 rbodymod=0 panw1=0 panw2=0 panw3=0 panw4=0 panw5=0 panw6=0 panw7=0 panw8=0 panw9=0 panw10=0 sa=550e-9 sb=550e-9 sd=0 dtemp=0
mt15 out net132 vdd vdd pfet l=120e-9 w=1.2e-6 nf=1 m=1 par=1 ngcon=1 ad=660e-15 as=660e-15 pd=3.5e-6 ps=3.5e-6 nrd=150e-3 nrs=150e-3 rf_rsub=1 plnest=-1 plorient=-1 pld200=-1 pwd100=-1 lstis=1 lnws=0 rgatemod=0 rbodymod=0 panw1=0 panw2=0 panw3=0 panw4=0 panw5=0 panw6=0 panw7=0 panw8=0 panw9=0 panw10=0 sa=550e-9 sb=550e-9 sd=0 dtemp=0
mt1 net148 xiin vdd vdd pfet l=120e-9 w=1.2e-6 nf=1 m=1 par=1 ngcon=1 ad=660e-15 as=660e-15 pd=3.5e-6 ps=3.5e-6 nrd=150e-3 nrs=150e-3 rf_rsub=1 plnest=-1 plorient=-1 pld200=-1 pwd100=-1 lstis=1 lnws=0 rgatemod=0 rbodymod=0 panw1=0 panw2=0 panw3=0 panw4=0 panw5=0 panw6=0 panw7=0 panw8=0 panw9=0 panw10=0 sa=550e-9 sb=550e-9 sd=0 dtemp=0
mt0 net144 ximinus1in vdd vdd pfet l=120e-9 w=1.2e-6 nf=1 m=1 par=1 ngcon=1 ad=660e-15 as=660e-15 pd=3.5e-6 ps=3.5e-6 nrd=150e-3 nrs=150e-3 rf_rsub=1 plnest=-1 plorient=-1 pld200=-1 pwd100=-1 lstis=1 lnws=0 rgatemod=0 rbodymod=0 panw1=0 panw2=0 panw3=0 panw4=0 panw5=0 panw6=0 panw7=0 panw8=0 panw9=0 panw10=0 sa=550e-9 sb=550e-9 sd=0 dtemp=0
.ends PPMUX
** End of subcircuit definition.

** Library name: Newone
** Cell name: addblock
** View name: schematic
.subckt addblock minus1 minus2 one out two zero
mt6 net28 net47 vdd vdd pfet l=120e-9 w=1.2e-6 nf=1 m=1 par=1 ngcon=1 ad=609e-15 as=609e-15 pd=3.365e-6 ps=3.365e-6 nrd=225.1e-3 nrs=225.1e-3 rf_rsub=1 plnest=-1 plorient=-1 pld200=-1 pwd100=-1 lstis=1 lnws=0 rgatemod=0 rbodymod=0 panw1=0 panw2=0 panw3=0 panw4=0 panw5=0 panw6=0 panw7=0 panw8=0 panw9=0 panw10=0 sa=550e-9 sb=550e-9 sd=0 dtemp=0
mt9 net52 net28 vdd vdd pfet l=120e-9 w=1.2e-6 nf=1 m=1 par=1 ngcon=1 ad=609e-15 as=609e-15 pd=3.365e-6 ps=3.365e-6 nrd=225.1e-3 nrs=225.1e-3 rf_rsub=1 plnest=-1 plorient=-1 pld200=-1 pwd100=-1 lstis=1 lnws=0 rgatemod=0 rbodymod=0 panw1=0 panw2=0 panw3=0 panw4=0 panw5=0 panw6=0 panw7=0 panw8=0 panw9=0 panw10=0 sa=550e-9 sb=550e-9 sd=0 dtemp=0
mt11 out net52 vdd vdd pfet l=120e-9 w=1.2e-6 nf=1 m=1 par=1 ngcon=1 ad=609e-15 as=609e-15 pd=3.365e-6 ps=3.365e-6 nrd=225.1e-3 nrs=225.1e-3 rf_rsub=1 plnest=-1 plorient=-1 pld200=-1 pwd100=-1 lstis=1 lnws=0 rgatemod=0 rbodymod=0 panw1=0 panw2=0 panw3=0 panw4=0 panw5=0 panw6=0 panw7=0 panw8=0 panw9=0 panw10=0 sa=550e-9 sb=550e-9 sd=0 dtemp=0
mt7 vdd net28 net47 vdd pfet l=120e-9 w=1.2e-6 nf=1 m=1 par=1 ngcon=1 ad=609e-15 as=609e-15 pd=3.365e-6 ps=3.365e-6 nrd=225.1e-3 nrs=225.1e-3 rf_rsub=1 plnest=-1 plorient=-1 pld200=-1 pwd100=-1 lstis=1 lnws=0 rgatemod=0 rbodymod=0 panw1=0 panw2=0 panw3=0 panw4=0 panw5=0 panw6=0 panw7=0 panw8=0 panw9=0 panw10=0 sa=550e-9 sb=550e-9 sd=0 dtemp=0
mt2 vdd zero net47 0 nfet l=120e-9 w=600e-9 nf=1 m=1 par=1 ngcon=1 ad=293e-15 as=293e-15 pd=2.165e-6 ps=2.165e-6 nrd=468.5e-3 nrs=468.5e-3 rf_rsub=1 plnest=-1 plorient=-1 pld200=-1 pwd100=-1 lstis=1 lnws=0 rgatemod=0 rbodymod=0 panw1=0 panw2=0 panw3=0 panw4=0 panw5=0 panw6=0 panw7=0 panw8=0 panw9=0 panw10=0 sa=550e-9 sb=550e-9 sd=0 dtemp=0
mt4 vdd two net47 0 nfet l=120e-9 w=600e-9 nf=1 m=1 par=1 ngcon=1 ad=293e-15 as=293e-15 pd=2.165e-6 ps=2.165e-6 nrd=468.5e-3 nrs=468.5e-3 rf_rsub=1 plnest=-1 plorient=-1 pld200=-1 pwd100=-1 lstis=1 lnws=0 rgatemod=0 rbodymod=0 panw1=0 panw2=0 panw3=0 panw4=0 panw5=0 panw6=0 panw7=0 panw8=0 panw9=0 panw10=0 sa=550e-9 sb=550e-9 sd=0 dtemp=0
mt5 net28 net47 0 0 nfet l=120e-9 w=600e-9 nf=1 m=1 par=1 ngcon=1 ad=293e-15 as=293e-15 pd=2.165e-6 ps=2.165e-6 nrd=468.5e-3 nrs=468.5e-3 rf_rsub=1 plnest=-1 plorient=-1 pld200=-1 pwd100=-1 lstis=1 lnws=0 rgatemod=0 rbodymod=0 panw1=0 panw2=0 panw3=0 panw4=0 panw5=0 panw6=0 panw7=0 panw8=0 panw9=0 panw10=0 sa=550e-9 sb=550e-9 sd=0 dtemp=0
mt3 vdd one net47 0 nfet l=120e-9 w=600e-9 nf=1 m=1 par=1 ngcon=1 ad=293e-15 as=293e-15 pd=2.165e-6 ps=2.165e-6 nrd=468.5e-3 nrs=468.5e-3 rf_rsub=1 plnest=-1 plorient=-1 pld200=-1 pwd100=-1 lstis=1 lnws=0 rgatemod=0 rbodymod=0 panw1=0 panw2=0 panw3=0 panw4=0 panw5=0 panw6=0 panw7=0 panw8=0 panw9=0 panw10=0 sa=550e-9 sb=550e-9 sd=0 dtemp=0
mt1 0 minus2 net47 0 nfet l=120e-9 w=600e-9 nf=1 m=1 par=1 ngcon=1 ad=293e-15 as=293e-15 pd=2.165e-6 ps=2.165e-6 nrd=468.5e-3 nrs=468.5e-3 rf_rsub=1 plnest=-1 plorient=-1 pld200=-1 pwd100=-1 lstis=1 lnws=0 rgatemod=0 rbodymod=0 panw1=0 panw2=0 panw3=0 panw4=0 panw5=0 panw6=0 panw7=0 panw8=0 panw9=0 panw10=0 sa=550e-9 sb=550e-9 sd=0 dtemp=0
mt0 0 minus1 net47 0 nfet l=120e-9 w=600e-9 nf=1 m=1 par=1 ngcon=1 ad=293e-15 as=293e-15 pd=2.165e-6 ps=2.165e-6 nrd=468.5e-3 nrs=468.5e-3 rf_rsub=1 plnest=-1 plorient=-1 pld200=-1 pwd100=-1 lstis=1 lnws=0 rgatemod=0 rbodymod=0 panw1=0 panw2=0 panw3=0 panw4=0 panw5=0 panw6=0 panw7=0 panw8=0 panw9=0 panw10=0 sa=550e-9 sb=550e-9 sd=0 dtemp=0
mt8 net52 net28 0 0 nfet l=120e-9 w=600e-9 nf=1 m=1 par=1 ngcon=1 ad=293e-15 as=293e-15 pd=2.165e-6 ps=2.165e-6 nrd=468.5e-3 nrs=468.5e-3 rf_rsub=1 plnest=-1 plorient=-1 pld200=-1 pwd100=-1 lstis=1 lnws=0 rgatemod=0 rbodymod=0 panw1=0 panw2=0 panw3=0 panw4=0 panw5=0 panw6=0 panw7=0 panw8=0 panw9=0 panw10=0 sa=550e-9 sb=550e-9 sd=0 dtemp=0
mt10 out net52 0 0 nfet l=120e-9 w=600e-9 nf=1 m=1 par=1 ngcon=1 ad=293e-15 as=293e-15 pd=2.165e-6 ps=2.165e-6 nrd=468.5e-3 nrs=468.5e-3 rf_rsub=1 plnest=-1 plorient=-1 pld200=-1 pwd100=-1 lstis=1 lnws=0 rgatemod=0 rbodymod=0 panw1=0 panw2=0 panw3=0 panw4=0 panw5=0 panw6=0 panw7=0 panw8=0 panw9=0 panw10=0 sa=550e-9 sb=550e-9 sd=0 dtemp=0
.ends addblock
** End of subcircuit definition.

** Library name: Newone
** Cell name: nand2
** View name: schematic
.subckt nand2 inp1 inp2 out
mt3 out inp2 vdd vdd pfet l=120e-9 w=1.08e-6 nf=1 m=1 par=1 ngcon=1 ad=594e-15 as=594e-15 pd=3.26e-6 ps=3.26e-6 nrd=166.7e-3 nrs=166.7e-3 rf_rsub=1 plnest=-1 plorient=-1 pld200=-1 pwd100=-1 lstis=1 lnws=0 rgatemod=0 rbodymod=0 panw1=0 panw2=0 panw3=0 panw4=0 panw5=0 panw6=0 panw7=0 panw8=0 panw9=0 panw10=0 sa=550e-9 sb=550e-9 sd=0 dtemp=0
mt2 out inp1 vdd vdd pfet l=120e-9 w=1.08e-6 nf=1 m=1 par=1 ngcon=1 ad=594e-15 as=594e-15 pd=3.26e-6 ps=3.26e-6 nrd=166.7e-3 nrs=166.7e-3 rf_rsub=1 plnest=-1 plorient=-1 pld200=-1 pwd100=-1 lstis=1 lnws=0 rgatemod=0 rbodymod=0 panw1=0 panw2=0 panw3=0 panw4=0 panw5=0 panw6=0 panw7=0 panw8=0 panw9=0 panw10=0 sa=550e-9 sb=550e-9 sd=0 dtemp=0
mt1 net17 inp1 0 0 nfet l=120e-9 w=560e-9 nf=1 m=1 par=1 ngcon=1 ad=308e-15 as=308e-15 pd=2.22e-6 ps=2.22e-6 nrd=321.4e-3 nrs=321.4e-3 rf_rsub=1 plnest=-1 plorient=-1 pld200=-1 pwd100=-1 lstis=1 lnws=0 rgatemod=0 rbodymod=0 panw1=0 panw2=0 panw3=0 panw4=0 panw5=0 panw6=0 panw7=0 panw8=0 panw9=0 panw10=0 sa=550e-9 sb=550e-9 sd=0 dtemp=0
mt0 out inp2 net17 0 nfet l=120e-9 w=560e-9 nf=1 m=1 par=1 ngcon=1 ad=308e-15 as=308e-15 pd=2.22e-6 ps=2.22e-6 nrd=321.4e-3 nrs=321.4e-3 rf_rsub=1 plnest=-1 plorient=-1 pld200=-1 pwd100=-1 lstis=1 lnws=0 rgatemod=0 rbodymod=0 panw1=0 panw2=0 panw3=0 panw4=0 panw5=0 panw6=0 panw7=0 panw8=0 panw9=0 panw10=0 sa=550e-9 sb=550e-9 sd=0 dtemp=0
.ends nand2
** End of subcircuit definition.

** Library name: Newone
** Cell name: nand3
** View name: schematic
.subckt nand3_schematic inp1 inp2 inp3 out
mt5 0 inp3 net9 0 nfet l=120e-9 w=560e-9 nf=1 m=1 par=1 ngcon=1 ad=308e-15 as=308e-15 pd=2.22e-6 ps=2.22e-6 nrd=321.4e-3 nrs=321.4e-3 rf_rsub=1 plnest=-1 plorient=-1 pld200=-1 pwd100=-1 lstis=1 lnws=0 rgatemod=0 rbodymod=0 panw1=0 panw2=0 panw3=0 panw4=0 panw5=0 panw6=0 panw7=0 panw8=0 panw9=0 panw10=0 sa=550e-9 sb=550e-9 sd=0 dtemp=0
mt0 out inp2 net18 0 nfet l=120e-9 w=560e-9 nf=1 m=1 par=1 ngcon=1 ad=308e-15 as=308e-15 pd=2.22e-6 ps=2.22e-6 nrd=321.4e-3 nrs=321.4e-3 rf_rsub=1 plnest=-1 plorient=-1 pld200=-1 pwd100=-1 lstis=1 lnws=0 rgatemod=0 rbodymod=0 panw1=0 panw2=0 panw3=0 panw4=0 panw5=0 panw6=0 panw7=0 panw8=0 panw9=0 panw10=0 sa=550e-9 sb=550e-9 sd=0 dtemp=0
mt1 net18 inp1 net9 0 nfet l=120e-9 w=560e-9 nf=1 m=1 par=1 ngcon=1 ad=308e-15 as=308e-15 pd=2.22e-6 ps=2.22e-6 nrd=321.4e-3 nrs=321.4e-3 rf_rsub=1 plnest=-1 plorient=-1 pld200=-1 pwd100=-1 lstis=1 lnws=0 rgatemod=0 rbodymod=0 panw1=0 panw2=0 panw3=0 panw4=0 panw5=0 panw6=0 panw7=0 panw8=0 panw9=0 panw10=0 sa=550e-9 sb=550e-9 sd=0 dtemp=0
mt4 out inp3 vdd vdd pfet l=120e-9 w=1.08e-6 nf=1 m=1 par=1 ngcon=1 ad=594e-15 as=594e-15 pd=3.26e-6 ps=3.26e-6 nrd=166.7e-3 nrs=166.7e-3 rf_rsub=1 plnest=-1 plorient=-1 pld200=-1 pwd100=-1 lstis=1 lnws=0 rgatemod=0 rbodymod=0 panw1=0 panw2=0 panw3=0 panw4=0 panw5=0 panw6=0 panw7=0 panw8=0 panw9=0 panw10=0 sa=550e-9 sb=550e-9 sd=0 dtemp=0
mt2 out inp1 vdd vdd pfet l=120e-9 w=1.08e-6 nf=1 m=1 par=1 ngcon=1 ad=594e-15 as=594e-15 pd=3.26e-6 ps=3.26e-6 nrd=166.7e-3 nrs=166.7e-3 rf_rsub=1 plnest=-1 plorient=-1 pld200=-1 pwd100=-1 lstis=1 lnws=0 rgatemod=0 rbodymod=0 panw1=0 panw2=0 panw3=0 panw4=0 panw5=0 panw6=0 panw7=0 panw8=0 panw9=0 panw10=0 sa=550e-9 sb=550e-9 sd=0 dtemp=0
mt3 out inp2 vdd vdd pfet l=120e-9 w=1.08e-6 nf=1 m=1 par=1 ngcon=1 ad=594e-15 as=594e-15 pd=3.26e-6 ps=3.26e-6 nrd=166.7e-3 nrs=166.7e-3 rf_rsub=1 plnest=-1 plorient=-1 pld200=-1 pwd100=-1 lstis=1 lnws=0 rgatemod=0 rbodymod=0 panw1=0 panw2=0 panw3=0 panw4=0 panw5=0 panw6=0 panw7=0 panw8=0 panw9=0 panw10=0 sa=550e-9 sb=550e-9 sd=0 dtemp=0
.ends nand3_schematic
** End of subcircuit definition.

** Library name: Newone
** Cell name: booth
** View name: schematic
.subckt booth minus1 minus2 one two xi yi zero zi
xi14 net80 net50 minus1 nand2
xi16 net62 net68 zero nand2
xi15 net56 net56 minus2 nand2
xi21 net92 net92 two nand2
xi22 net74 net062 one nand2
xi10 x ybar z net50 nand3_schematic
xi9 x y zbar net80 nand3_schematic
xi12 xbar ybar zbar net62 nand3_schematic
xi11 x ybar zbar net56 nand3_schematic
xi13 x y z net68 nand3_schematic
xi18 xbar y zbar net062 nand3_schematic
xi17 xbar ybar z net74 nand3_schematic
xi19 xbar y z net92 nand3_schematic
xi6 x xbar inv
xi5 net20 z inv
xi8 z zbar inv
xi7 y ybar inv
xi0 xi net44 inv
xi1 yi net24 inv
xi2 zi net20 inv
xi3 net44 x inv
xi4 net24 y inv
.ends booth
** End of subcircuit definition.

** Library name: Newone
** Cell name: PP_add
** View name: schematic
.subckt PP_add a0 p0 p1 p10 p11 p12 p13 p14 p15 p16 p17 p18 p19 p2 p20 p21 p22 p22_bar p3 p4 p5 p6 p7 p8 p9 x0 x1 x10 x11 x12 x13 x14 x15 x16 x17 x18 x19 x2 x20 x3 x4 x5 x6 x7 x8 x9 y0 y1 y2
xi51 p22 p22_bar inv
xi49 _net0 _net1 _net2 p0 _net3 x0 0 _net4 PPMUX
xi48 _net0 _net1 _net2 p1 _net3 x1 x0 _net4 PPMUX
xi27 _net0 _net1 _net2 p22 _net3 0 0 _net4 PPMUX
xi28 _net0 _net1 _net2 p21 _net3 0 x20 _net4 PPMUX
xi31 _net0 _net1 _net2 p18 _net3 x18 x17 _net4 PPMUX
xi34 _net0 _net1 _net2 p15 _net3 x15 x14 _net4 PPMUX
xi37 _net0 _net1 _net2 p12 _net3 x12 x11 _net4 PPMUX
xi39 _net0 _net1 _net2 p10 _net3 x10 x9 _net4 PPMUX
xi41 _net0 _net1 _net2 p8 _net3 x8 x7 _net4 PPMUX
xi43 _net0 _net1 _net2 p6 _net3 x6 x5 _net4 PPMUX
xi44 _net0 _net1 _net2 p5 _net3 x5 x4 _net4 PPMUX
xi46 _net0 _net1 _net2 p3 _net3 x3 x2 _net4 PPMUX
xi32 _net0 _net1 _net2 p17 _net3 x17 x16 _net4 PPMUX
xi33 _net0 _net1 _net2 p16 _net3 x16 x15 _net4 PPMUX
xi36 _net0 _net1 _net2 p13 _net3 x13 x12 _net4 PPMUX
xi38 _net0 _net1 _net2 p11 _net3 x11 x10 _net4 PPMUX
xi42 _net0 _net1 _net2 p7 _net3 x7 x6 _net4 PPMUX
xi45 _net0 _net1 _net2 p4 _net3 x4 x3 _net4 PPMUX
xi47 _net0 _net1 _net2 p2 _net3 x2 x1 _net4 PPMUX
xi29 _net0 _net1 _net2 p20 _net3 x20 x19 _net4 PPMUX
xi40 _net0 _net1 _net2 p9 _net3 x9 x8 _net4 PPMUX
xi35 _net0 _net1 _net2 p14 _net3 x14 x13 _net4 PPMUX
xi30 _net0 _net1 _net2 p19 _net3 x19 x18 _net4 PPMUX
xi25 _net0 _net1 _net2 a0 _net3 _net4 addblock
xi0 _net0 _net1 _net2 _net3 y2 y1 _net4 y0 booth
.ends PP_add
** End of subcircuit definition.

** Library name: pro-2
** Cell name: half_adder
** View name: schematic
.subckt half_adder ai bi carry sum
mt15 carry net1 0 0 nfet l=120e-9 w=600e-9 nf=1 m=1 par=1 ngcon=1 ad=293e-15 as=293e-15 pd=2.165e-6 ps=2.165e-6 nrd=468.5e-3 nrs=468.5e-3 rf_rsub=1 plnest=-1 plorient=-1 pld200=-1 pwd100=-1 lstis=1 lnws=0 rgatemod=0 rbodymod=0 panw1=0 panw2=0 panw3=0 panw4=0 panw5=0 panw6=0 panw7=0 panw8=0 panw9=0 panw10=0 sa=550e-9 sb=550e-9 sd=0 dtemp=0
mt14 net014 bi 0 0 nfet l=120e-9 w=600e-9 nf=1 m=1 par=1 ngcon=1 ad=293e-15 as=293e-15 pd=2.165e-6 ps=2.165e-6 nrd=468.5e-3 nrs=468.5e-3 rf_rsub=1 plnest=-1 plorient=-1 pld200=-1 pwd100=-1 lstis=1 lnws=0 rgatemod=0 rbodymod=0 panw1=0 panw2=0 panw3=0 panw4=0 panw5=0 panw6=0 panw7=0 panw8=0 panw9=0 panw10=0 sa=550e-9 sb=550e-9 sd=0 dtemp=0
mt13 net1 ai net014 0 nfet l=120e-9 w=600e-9 nf=1 m=1 par=1 ngcon=1 ad=293e-15 as=293e-15 pd=2.165e-6 ps=2.165e-6 nrd=468.5e-3 nrs=468.5e-3 rf_rsub=1 plnest=-1 plorient=-1 pld200=-1 pwd100=-1 lstis=1 lnws=0 rgatemod=0 rbodymod=0 panw1=0 panw2=0 panw3=0 panw4=0 panw5=0 panw6=0 panw7=0 panw8=0 panw9=0 panw10=0 sa=550e-9 sb=550e-9 sd=0 dtemp=0
mt12 sum net13 0 0 nfet l=120e-9 w=600e-9 nf=1 m=1 par=1 ngcon=1 ad=293e-15 as=293e-15 pd=2.165e-6 ps=2.165e-6 nrd=468.5e-3 nrs=468.5e-3 rf_rsub=1 plnest=-1 plorient=-1 pld200=-1 pwd100=-1 lstis=1 lnws=0 rgatemod=0 rbodymod=0 panw1=0 panw2=0 panw3=0 panw4=0 panw5=0 panw6=0 panw7=0 panw8=0 panw9=0 panw10=0 sa=550e-9 sb=550e-9 sd=0 dtemp=0
mt11 net026 bi 0 0 nfet l=120e-9 w=600e-9 nf=1 m=1 par=1 ngcon=1 ad=293e-15 as=293e-15 pd=2.165e-6 ps=2.165e-6 nrd=468.5e-3 nrs=468.5e-3 rf_rsub=1 plnest=-1 plorient=-1 pld200=-1 pwd100=-1 lstis=1 lnws=0 rgatemod=0 rbodymod=0 panw1=0 panw2=0 panw3=0 panw4=0 panw5=0 panw6=0 panw7=0 panw8=0 panw9=0 panw10=0 sa=550e-9 sb=550e-9 sd=0 dtemp=0
mt10 sum ai net026 0 nfet l=120e-9 w=600e-9 nf=1 m=1 par=1 ngcon=1 ad=293e-15 as=293e-15 pd=2.165e-6 ps=2.165e-6 nrd=468.5e-3 nrs=468.5e-3 rf_rsub=1 plnest=-1 plorient=-1 pld200=-1 pwd100=-1 lstis=1 lnws=0 rgatemod=0 rbodymod=0 panw1=0 panw2=0 panw3=0 panw4=0 panw5=0 panw6=0 panw7=0 panw8=0 panw9=0 panw10=0 sa=550e-9 sb=550e-9 sd=0 dtemp=0
mt9 net13 bi 0 0 nfet l=120e-9 w=600e-9 nf=1 m=1 par=1 ngcon=1 ad=293e-15 as=293e-15 pd=2.165e-6 ps=2.165e-6 nrd=468.5e-3 nrs=468.5e-3 rf_rsub=1 plnest=-1 plorient=-1 pld200=-1 pwd100=-1 lstis=1 lnws=0 rgatemod=0 rbodymod=0 panw1=0 panw2=0 panw3=0 panw4=0 panw5=0 panw6=0 panw7=0 panw8=0 panw9=0 panw10=0 sa=550e-9 sb=550e-9 sd=0 dtemp=0
mt8 net13 ai 0 0 nfet l=120e-9 w=600e-9 nf=1 m=1 par=1 ngcon=1 ad=293e-15 as=293e-15 pd=2.165e-6 ps=2.165e-6 nrd=468.5e-3 nrs=468.5e-3 rf_rsub=1 plnest=-1 plorient=-1 pld200=-1 pwd100=-1 lstis=1 lnws=0 rgatemod=0 rbodymod=0 panw1=0 panw2=0 panw3=0 panw4=0 panw5=0 panw6=0 panw7=0 panw8=0 panw9=0 panw10=0 sa=550e-9 sb=550e-9 sd=0 dtemp=0
mt7 carry net1 vdd vdd pfet l=120e-9 w=1.1e-6 nf=1 m=1 par=1 ngcon=1 ad=557e-15 as=557e-15 pd=3.165e-6 ps=3.165e-6 nrd=246.4e-3 nrs=246.4e-3 rf_rsub=1 plnest=-1 plorient=-1 pld200=-1 pwd100=-1 lstis=1 lnws=0 rgatemod=0 rbodymod=0 panw1=0 panw2=0 panw3=0 panw4=0 panw5=0 panw6=0 panw7=0 panw8=0 panw9=0 panw10=0 sa=550e-9 sb=550e-9 sd=0 dtemp=0
mt6 net1 bi vdd vdd pfet l=120e-9 w=1.1e-6 nf=1 m=1 par=1 ngcon=1 ad=557e-15 as=557e-15 pd=3.165e-6 ps=3.165e-6 nrd=246.4e-3 nrs=246.4e-3 rf_rsub=1 plnest=-1 plorient=-1 pld200=-1 pwd100=-1 lstis=1 lnws=0 rgatemod=0 rbodymod=0 panw1=0 panw2=0 panw3=0 panw4=0 panw5=0 panw6=0 panw7=0 panw8=0 panw9=0 panw10=0 sa=550e-9 sb=550e-9 sd=0 dtemp=0
mt5 net1 ai vdd vdd pfet l=120e-9 w=1.1e-6 nf=1 m=1 par=1 ngcon=1 ad=557e-15 as=557e-15 pd=3.165e-6 ps=3.165e-6 nrd=246.4e-3 nrs=246.4e-3 rf_rsub=1 plnest=-1 plorient=-1 pld200=-1 pwd100=-1 lstis=1 lnws=0 rgatemod=0 rbodymod=0 panw1=0 panw2=0 panw3=0 panw4=0 panw5=0 panw6=0 panw7=0 panw8=0 panw9=0 panw10=0 sa=550e-9 sb=550e-9 sd=0 dtemp=0
mt4 sum net13 net20 vdd pfet l=120e-9 w=1.1e-6 nf=1 m=1 par=1 ngcon=1 ad=557e-15 as=557e-15 pd=3.165e-6 ps=3.165e-6 nrd=246.4e-3 nrs=246.4e-3 rf_rsub=1 plnest=-1 plorient=-1 pld200=-1 pwd100=-1 lstis=1 lnws=0 rgatemod=0 rbodymod=0 panw1=0 panw2=0 panw3=0 panw4=0 panw5=0 panw6=0 panw7=0 panw8=0 panw9=0 panw10=0 sa=550e-9 sb=550e-9 sd=0 dtemp=0
mt3 net20 bi vdd vdd pfet l=120e-9 w=1.1e-6 nf=1 m=1 par=1 ngcon=1 ad=557e-15 as=557e-15 pd=3.165e-6 ps=3.165e-6 nrd=246.4e-3 nrs=246.4e-3 rf_rsub=1 plnest=-1 plorient=-1 pld200=-1 pwd100=-1 lstis=1 lnws=0 rgatemod=0 rbodymod=0 panw1=0 panw2=0 panw3=0 panw4=0 panw5=0 panw6=0 panw7=0 panw8=0 panw9=0 panw10=0 sa=550e-9 sb=550e-9 sd=0 dtemp=0
mt2 net20 ai vdd vdd pfet l=120e-9 w=1.1e-6 nf=1 m=1 par=1 ngcon=1 ad=557e-15 as=557e-15 pd=3.165e-6 ps=3.165e-6 nrd=246.4e-3 nrs=246.4e-3 rf_rsub=1 plnest=-1 plorient=-1 pld200=-1 pwd100=-1 lstis=1 lnws=0 rgatemod=0 rbodymod=0 panw1=0 panw2=0 panw3=0 panw4=0 panw5=0 panw6=0 panw7=0 panw8=0 panw9=0 panw10=0 sa=550e-9 sb=550e-9 sd=0 dtemp=0
mt1 net13 bi net27 vdd pfet l=120e-9 w=1.1e-6 nf=1 m=1 par=1 ngcon=1 ad=557e-15 as=557e-15 pd=3.165e-6 ps=3.165e-6 nrd=246.4e-3 nrs=246.4e-3 rf_rsub=1 plnest=-1 plorient=-1 pld200=-1 pwd100=-1 lstis=1 lnws=0 rgatemod=0 rbodymod=0 panw1=0 panw2=0 panw3=0 panw4=0 panw5=0 panw6=0 panw7=0 panw8=0 panw9=0 panw10=0 sa=550e-9 sb=550e-9 sd=0 dtemp=0
mt0 net27 ai vdd vdd pfet l=120e-9 w=1.1e-6 nf=1 m=1 par=1 ngcon=1 ad=557e-15 as=557e-15 pd=3.165e-6 ps=3.165e-6 nrd=246.4e-3 nrs=246.4e-3 rf_rsub=1 plnest=-1 plorient=-1 pld200=-1 pwd100=-1 lstis=1 lnws=0 rgatemod=0 rbodymod=0 panw1=0 panw2=0 panw3=0 panw4=0 panw5=0 panw6=0 panw7=0 panw8=0 panw9=0 panw10=0 sa=550e-9 sb=550e-9 sd=0 dtemp=0
.ends half_adder
** End of subcircuit definition.

** Library name: pro-2
** Cell name: mir-add
** View name: schematic
.subckt _sub1 a b c ci s
mt0 ci net0156 vdd vdd pfet l=120e-9 w=1.12e-6 nf=1 m=1 par=1 ngcon=1 ad=616e-15 as=616e-15 pd=3.34e-6 ps=3.34e-6 nrd=160.7e-3 nrs=160.7e-3 rf_rsub=1 plnest=-1 plorient=-1 pld200=-1 pwd100=-1 lstis=1 lnws=0 rgatemod=0 rbodymod=0 panw1=0 panw2=0 panw3=0 panw4=0 panw5=0 panw6=0 panw7=0 panw8=0 panw9=0 panw10=0 sa=550e-9 sb=550e-9 sd=0 dtemp=0
mt12 net15 b vdd vdd pfet l=120e-9 w=1.12e-6 nf=1 m=1 par=1 ngcon=1 ad=616e-15 as=616e-15 pd=3.34e-6 ps=3.34e-6 nrd=160.7e-3 nrs=160.7e-3 rf_rsub=1 plnest=-1 plorient=-1 pld200=-1 pwd100=-1 lstis=1 lnws=0 rgatemod=0 rbodymod=0 panw1=0 panw2=0 panw3=0 panw4=0 panw5=0 panw6=0 panw7=0 panw8=0 panw9=0 panw10=0 sa=550e-9 sb=550e-9 sd=0 dtemp=0
mt6 net15 a vdd vdd pfet l=120e-9 w=1.12e-6 nf=1 m=1 par=1 ngcon=1 ad=616e-15 as=616e-15 pd=3.34e-6 ps=3.34e-6 nrd=160.7e-3 nrs=160.7e-3 rf_rsub=1 plnest=-1 plorient=-1 pld200=-1 pwd100=-1 lstis=1 lnws=0 rgatemod=0 rbodymod=0 panw1=0 panw2=0 panw3=0 panw4=0 panw5=0 panw6=0 panw7=0 panw8=0 panw9=0 panw10=0 sa=550e-9 sb=550e-9 sd=0 dtemp=0
mt22 net42 b vdd vdd pfet l=120e-9 w=1.68e-6 nf=1 m=1 par=1 ngcon=1 ad=924e-15 as=924e-15 pd=4.46e-6 ps=4.46e-6 nrd=107.1e-3 nrs=107.1e-3 rf_rsub=1 plnest=-1 plorient=-1 pld200=-1 pwd100=-1 lstis=1 lnws=0 rgatemod=0 rbodymod=0 panw1=0 panw2=0 panw3=0 panw4=0 panw5=0 panw6=0 panw7=0 panw8=0 panw9=0 panw10=0 sa=550e-9 sb=550e-9 sd=0 dtemp=0
mt34 net23 a vdd vdd pfet l=120e-9 w=1.12e-6 nf=1 m=1 par=1 ngcon=1 ad=616e-15 as=616e-15 pd=3.34e-6 ps=3.34e-6 nrd=160.7e-3 nrs=160.7e-3 rf_rsub=1 plnest=-1 plorient=-1 pld200=-1 pwd100=-1 lstis=1 lnws=0 rgatemod=0 rbodymod=0 panw1=0 panw2=0 panw3=0 panw4=0 panw5=0 panw6=0 panw7=0 panw8=0 panw9=0 panw10=0 sa=550e-9 sb=550e-9 sd=0 dtemp=0
mt35 net23 b vdd vdd pfet l=120e-9 w=1.12e-6 nf=1 m=1 par=1 ngcon=1 ad=616e-15 as=616e-15 pd=3.34e-6 ps=3.34e-6 nrd=160.7e-3 nrs=160.7e-3 rf_rsub=1 plnest=-1 plorient=-1 pld200=-1 pwd100=-1 lstis=1 lnws=0 rgatemod=0 rbodymod=0 panw1=0 panw2=0 panw3=0 panw4=0 panw5=0 panw6=0 panw7=0 panw8=0 panw9=0 panw10=0 sa=550e-9 sb=550e-9 sd=0 dtemp=0
mt32 net54 b vdd vdd pfet l=120e-9 w=1.12e-6 nf=1 m=1 par=1 ngcon=1 ad=616e-15 as=616e-15 pd=3.34e-6 ps=3.34e-6 nrd=160.7e-3 nrs=160.7e-3 rf_rsub=1 plnest=-1 plorient=-1 pld200=-1 pwd100=-1 lstis=1 lnws=0 rgatemod=0 rbodymod=0 panw1=0 panw2=0 panw3=0 panw4=0 panw5=0 panw6=0 panw7=0 panw8=0 panw9=0 panw10=0 sa=550e-9 sb=550e-9 sd=0 dtemp=0
mt37 net0172 net0156 net23 vdd pfet l=120e-9 w=1.12e-6 nf=1 m=1 par=1 ngcon=1 ad=616e-15 as=616e-15 pd=3.34e-6 ps=3.34e-6 nrd=160.7e-3 nrs=160.7e-3 rf_rsub=1 plnest=-1 plorient=-1 pld200=-1 pwd100=-1 lstis=1 lnws=0 rgatemod=0 rbodymod=0 panw1=0 panw2=0 panw3=0 panw4=0 panw5=0 panw6=0 panw7=0 panw8=0 panw9=0 panw10=0 sa=550e-9 sb=550e-9 sd=0 dtemp=0
mt36 net23 c vdd vdd pfet l=120e-9 w=1.12e-6 nf=1 m=1 par=1 ngcon=1 ad=616e-15 as=616e-15 pd=3.34e-6 ps=3.34e-6 nrd=160.7e-3 nrs=160.7e-3 rf_rsub=1 plnest=-1 plorient=-1 pld200=-1 pwd100=-1 lstis=1 lnws=0 rgatemod=0 rbodymod=0 panw1=0 panw2=0 panw3=0 panw4=0 panw5=0 panw6=0 panw7=0 panw8=0 panw9=0 panw10=0 sa=550e-9 sb=550e-9 sd=0 dtemp=0
mt45 net46 a net42 vdd pfet l=120e-9 w=1.68e-6 nf=1 m=1 par=1 ngcon=1 ad=924e-15 as=924e-15 pd=4.46e-6 ps=4.46e-6 nrd=107.1e-3 nrs=107.1e-3 rf_rsub=1 plnest=-1 plorient=-1 pld200=-1 pwd100=-1 lstis=1 lnws=0 rgatemod=0 rbodymod=0 panw1=0 panw2=0 panw3=0 panw4=0 panw5=0 panw6=0 panw7=0 panw8=0 panw9=0 panw10=0 sa=550e-9 sb=550e-9 sd=0 dtemp=0
mt46 net0172 c net46 vdd pfet l=120e-9 w=1.68e-6 nf=1 m=1 par=1 ngcon=1 ad=924e-15 as=924e-15 pd=4.46e-6 ps=4.46e-6 nrd=107.1e-3 nrs=107.1e-3 rf_rsub=1 plnest=-1 plorient=-1 pld200=-1 pwd100=-1 lstis=1 lnws=0 rgatemod=0 rbodymod=0 panw1=0 panw2=0 panw3=0 panw4=0 panw5=0 panw6=0 panw7=0 panw8=0 panw9=0 panw10=0 sa=550e-9 sb=550e-9 sd=0 dtemp=0
mt31 net0156 c net15 vdd pfet l=120e-9 w=1.12e-6 nf=1 m=1 par=1 ngcon=1 ad=616e-15 as=616e-15 pd=3.34e-6 ps=3.34e-6 nrd=160.7e-3 nrs=160.7e-3 rf_rsub=1 plnest=-1 plorient=-1 pld200=-1 pwd100=-1 lstis=1 lnws=0 rgatemod=0 rbodymod=0 panw1=0 panw2=0 panw3=0 panw4=0 panw5=0 panw6=0 panw7=0 panw8=0 panw9=0 panw10=0 sa=550e-9 sb=550e-9 sd=0 dtemp=0
mt33 net0156 a net54 vdd pfet l=120e-9 w=1.12e-6 nf=1 m=1 par=1 ngcon=1 ad=616e-15 as=616e-15 pd=3.34e-6 ps=3.34e-6 nrd=160.7e-3 nrs=160.7e-3 rf_rsub=1 plnest=-1 plorient=-1 pld200=-1 pwd100=-1 lstis=1 lnws=0 rgatemod=0 rbodymod=0 panw1=0 panw2=0 panw3=0 panw4=0 panw5=0 panw6=0 panw7=0 panw8=0 panw9=0 panw10=0 sa=550e-9 sb=550e-9 sd=0 dtemp=0